cache://DROP_prueba.mol
__Jmol-16.04292520533D 1   1.00000     0.00000     0
Jmol version 16.1.21  2023-07-07 17:55 EXTRACT: ({0:9})
 10  9  0  0  0  0            999 V2000
    1.6152    0.1774    0.0458 H   0  0  0  0  0  0
   -0.5898    1.4505    0.0458 H   0  0  0  0  0  0
   -0.5898   -1.0956    0.0458 H   0  0  0  0  0  0
    0.1452    0.1774    0.0458 C   0  0  0  0  0  0
    0.1452    0.1774   -2.3627 I   0  0  0  0  0  0
    0.1452    0.1774    2.0427 S   0  0  0  0  0  0
    0.9813   -1.2774    2.6368 C   0  0  0  0  0  0
    1.9901   -1.2796    2.2802 H   0  0  0  0  0  0
    0.9813   -1.2767    3.7068 H   0  0  0  0  0  0
    0.4751   -2.1501    2.2807 H   0  0  0  0  0  0
  1  4  1
  2  4  1
  3  4  1
  4  5  8
  4  6  8
  6  7  1
  7  8  1
  7  9  1
  7 10  1
M  END
> <JMOL_ATOM_NAMES>
10
1 H1
2 H2
3 H3
4 C4
5 I5
6 S6
7 C7
8 H8
9 H9
10 H10


$$$$
